Circuit: * Solar Cell SPICE Subcircuit Data

Fatal Error: No analysis request found.
